Version 4
SHEET 1 2780 680
WIRE 288 -64 80 -64
WIRE 288 0 288 -64
WIRE 288 0 240 0
WIRE 320 0 288 0
WIRE -128 64 -144 64
WIRE -32 64 -48 64
WIRE 176 64 176 0
WIRE 176 64 144 64
WIRE 384 64 384 0
WIRE 464 64 384 64
WIRE 976 64 464 64
WIRE 1200 64 976 64
WIRE 1680 64 1456 64
WIRE 1856 64 1680 64
WIRE -144 112 -144 64
WIRE -32 112 -32 64
WIRE 80 112 80 -64
WIRE 176 112 176 64
WIRE 288 112 240 112
WIRE 320 112 288 112
WIRE 384 112 384 64
WIRE 464 160 464 64
WIRE 976 176 976 64
WIRE 1680 192 1680 64
WIRE -144 224 -144 192
WIRE -80 224 -144 224
WIRE -32 224 -32 192
WIRE -32 224 -80 224
WIRE 80 272 80 192
WIRE 288 272 288 112
WIRE 288 272 80 272
WIRE 144 432 144 64
WIRE 464 432 464 240
WIRE 464 432 144 432
WIRE 976 432 976 240
WIRE 976 432 464 432
WIRE 1200 432 976 432
WIRE 1328 432 1328 160
WIRE 1328 432 1200 432
WIRE 1680 432 1680 272
WIRE 1680 432 1328 432
WIRE 1856 432 1680 432
WIRE -80 512 -80 224
WIRE 752 512 -80 512
WIRE 1200 512 1200 432
WIRE 1200 512 752 512
WIRE 752 624 752 512
FLAG 752 624 0
FLAG 1856 64 Vout
SYMBOL ind2 96 208 R180
WINDOW 0 36 80 Left 2
WINDOW 3 35 57 Left 2
SYMATTR InstName L2
SYMATTR Value 2
SYMATTR Type ind
SYMBOL diode 176 16 R270
WINDOW 0 32 32 VTop 2
WINDOW 3 0 32 VBottom 2
SYMATTR InstName D1
SYMATTR Value 1N4007
SYMBOL diode 320 16 R270
WINDOW 0 32 32 VTop 2
WINDOW 3 0 32 VBottom 2
SYMATTR InstName D2
SYMATTR Value 1N4007
SYMBOL diode 176 128 R270
WINDOW 0 32 32 VTop 2
WINDOW 3 0 32 VBottom 2
SYMATTR InstName D3
SYMATTR Value 1N4007
SYMBOL diode 320 128 R270
WINDOW 0 32 32 VTop 2
WINDOW 3 0 32 VBottom 2
SYMATTR InstName D4
SYMATTR Value 1N4007
SYMBOL voltage -144 96 R0
WINDOW 0 9 12 Left 2
WINDOW 3 -22 144 Left 2
WINDOW 123 0 0 Left 0
WINDOW 39 0 0 Left 0
SYMATTR InstName V1
SYMATTR Value SINE(0 311 50)
SYMBOL ind2 -48 96 R0
SYMATTR InstName L1
SYMATTR Value 336
SYMATTR Type ind
SYMBOL res -32 48 R90
WINDOW 0 0 56 VBottom 2
WINDOW 3 32 56 VTop 2
SYMATTR InstName R1
SYMATTR Value 2
SYMBOL res 448 144 R0
SYMATTR InstName R2
SYMATTR Value 1K
SYMBOL polcap 960 176 R0
WINDOW 3 24 56 Left 2
SYMATTR InstName C1
SYMATTR Value 2200µ
SYMATTR Description Capacitor
SYMATTR Type cap
SYMATTR SpiceLine V=16 Irms=1.73 Rser=0.034 Lser=0 mfg="Panasonic" pn="ECA1CFQ222" type="Al electrolytic"
SYMBOL PowerProducts\\LT1083-12 1328 64 R0
SYMATTR InstName U2
SYMBOL res 1664 176 R0
SYMATTR InstName R3
SYMATTR Value 10k
TEXT -184 568 Left 2 !.tran 100m
TEXT -32 48 Left 2 !K L1 L2 1
