Version 4
SHEET 1 1608 680
WIRE 432 -128 176 -128
WIRE 432 -32 432 -128
WIRE 432 -32 384 -32
WIRE 464 -32 432 -32
WIRE 320 32 320 -32
WIRE 320 32 272 32
WIRE 528 32 528 -32
WIRE 656 32 528 32
WIRE 832 32 656 32
WIRE 1024 32 832 32
WIRE 1440 32 1280 32
WIRE 1536 32 1440 32
WIRE -80 80 -112 80
WIRE 48 80 0 80
WIRE 320 96 320 32
WIRE 432 96 384 96
WIRE 464 96 432 96
WIRE 528 96 528 32
WIRE -112 128 -112 80
WIRE 48 128 48 80
WIRE 176 128 176 -128
WIRE 1440 144 1440 32
WIRE 656 160 656 32
WIRE 832 160 832 32
WIRE -112 272 -112 208
WIRE -32 272 -112 272
WIRE 48 272 48 208
WIRE 48 272 -32 272
WIRE 176 272 176 208
WIRE 432 272 432 96
WIRE 432 272 176 272
WIRE 272 368 272 32
WIRE 656 368 656 240
WIRE 656 368 272 368
WIRE 832 368 832 224
WIRE 832 368 656 368
WIRE 1024 368 832 368
WIRE 1152 368 1152 128
WIRE 1152 368 1024 368
WIRE 1440 368 1440 224
WIRE 1440 368 1152 368
WIRE 1536 368 1440 368
WIRE -32 560 -32 272
WIRE 208 560 -32 560
WIRE 1024 560 1024 368
WIRE 1024 560 208 560
WIRE 208 624 208 560
FLAG 208 624 0
FLAG 1536 32 Vout
SYMBOL voltage -112 112 R0
WINDOW 3 -12 182 Left 2
WINDOW 123 0 0 Left 0
WINDOW 39 0 0 Left 0
SYMATTR Value SINE(0 311 50)
SYMATTR InstName V1
SYMBOL res 16 64 R90
WINDOW 0 0 56 VBottom 2
WINDOW 3 32 56 VTop 2
SYMATTR InstName R1
SYMATTR Value 2
SYMBOL ind2 32 112 R0
SYMATTR InstName L1
SYMATTR Value 336
SYMATTR Type ind
SYMBOL ind2 192 224 R180
WINDOW 0 36 80 Left 2
WINDOW 3 36 40 Left 2
SYMATTR InstName L2
SYMATTR Value 2
SYMATTR Type ind
SYMBOL diode 320 -16 R270
WINDOW 0 32 32 VTop 2
WINDOW 3 0 32 VBottom 2
SYMATTR InstName D1
SYMATTR Value 1N4007
SYMBOL diode 464 -16 R270
WINDOW 0 32 32 VTop 2
WINDOW 3 0 32 VBottom 2
SYMATTR InstName D2
SYMATTR Value 1N4007
SYMBOL diode 320 112 R270
WINDOW 0 32 32 VTop 2
WINDOW 3 0 32 VBottom 2
SYMATTR InstName D3
SYMATTR Value 1N4007
SYMBOL diode 464 112 R270
WINDOW 0 32 32 VTop 2
WINDOW 3 0 32 VBottom 2
SYMATTR InstName D4
SYMATTR Value 1N4007
SYMBOL PowerProducts\\LT1083-12 1152 32 R0
SYMATTR InstName U1
SYMBOL res 640 144 R0
SYMATTR InstName R2
SYMATTR Value 1k
SYMBOL cap 816 160 R0
SYMATTR InstName C1
SYMATTR Value 2200µ
SYMBOL res 1424 128 R0
SYMATTR InstName R3
SYMATTR Value 10k
TEXT -248 456 Left 2 !.tran 100m
TEXT 40 48 Left 2 !K1 L1 L2 1
